nesta_case5_pjm.m
%%%%%%%%%%%%%%%%%%%%%%%%%%%%%%%%%%%%%%%%%%%%%%%%%%%%%%%%%%%%%%%%%%%%%%%%%%%
%%%%                                                                  %%%%%
%%%%      NICTA Energy System Test Case Archive (NESTA) - v0.7.0      %%%%%
%%%%              Optimal Power Flow - Typical Operation              %%%%%
%%%%                         05 - June - 2017                         %%%%%
%%%%                                                                  %%%%%
%%%%%%%%%%%%%%%%%%%%%%%%%%%%%%%%%%%%%%%%%%%%%%%%%%%%%%%%%%%%%%%%%%%%%%%%%%%
%
%   CASE5  Power flow data for modified 5 bus, 5 gen case based on PJM 5-bus system
%   Please see CASEFORMAT for details on the case file format.
%
%   Based on data from ...
%     F.Li and R.Bo, "Small Test Systems for Power System Economic Studies",
%     Proceedings of the 2010 IEEE Power & Energy Society General Meeting
%
%   Created by Rui Bo in 2006, modified in 2010, 2014.
%
function mpc = nesta_case5_pjm
mpc.version = '2';
mpc.baseMVA = 100.0;

%% area data
%	area	refbus
mpc.areas = [
	1	 4;
];

%% bus data
%	bus_i	type	Pd	Qd	Gs	Bs	area	Vm	Va	baseKV	zone	Vmax	Vmin
mpc.bus = [
	1	 2	 0.0	 0.0	 0.0	 0.0	 1	    1.07762	    2.80378	 230.0	 1	    1.10000	    0.90000;
	2	 1	 300.0	 98.61	 0.0	 0.0	 1	    1.08406	   -0.73464	 230.0	 1	    1.10000	    0.90000;
	3	 2	 300.0	 98.61	 0.0	 0.0	 1	    1.10000	   -0.55973	 230.0	 1	    1.10000	    0.90000;
	4	 3	 400.0	 131.47	 0.0	 0.0	 1	    1.06414	    0.00000	 230.0	 1	    1.10000	    0.90000;
	5	 2	 0.0	 0.0	 0.0	 0.0	 1	    1.06907	    3.59035	 230.0	 1	    1.10000	    0.90000;
];

%% generator data
%	bus	Pg	Qg	Qmax	Qmin	Vg	mBase	status	Pmax	Pmin	Pc1	Pc2	Qc1min	Qc1max	Qc2min	Qc2max	ramp_agc	ramp_10	ramp_30	ramp_q	apf
mpc.gen = [
	1	 40.0	 30.0	 30.0	 -30.0	 1.07762	 100.0	 1	 40.0	 0.0	 0.0	 0.0	 0.0	 0.0	 0.0	 0.0	 0.0	 0.0	 0.0	 0.0	 0.0;
	1	 170.0	 127.5	 127.5	 -127.5	 1.07762	 100.0	 1	 170.0	 0.0	 0.0	 0.0	 0.0	 0.0	 0.0	 0.0	 0.0	 0.0	 0.0	 0.0	 0.0;
	3	 324.498	 390.0	 390.0	 -390.0	 1.1	 100.0	 1	 520.0	 0.0	 0.0	 0.0	 0.0	 0.0	 0.0	 0.0	 0.0	 0.0	 0.0	 0.0	 0.0;
	4	 0.0	 -10.802	 150.0	 -150.0	 1.06414	 100.0	 1	 200.0	 0.0	 0.0	 0.0	 0.0	 0.0	 0.0	 0.0	 0.0	 0.0	 0.0	 0.0	 0.0;
	5	 470.694	 -165.039	 450.0	 -450.0	 1.06907	 100.0	 1	 600.0	 0.0	 0.0	 0.0	 0.0	 0.0	 0.0	 0.0	 0.0	 0.0	 0.0	 0.0	 0.0;
];

%% generator cost data
%	2	startup	shutdown	n	c(n-1)	...	c0
mpc.gencost = [
	2	 0.0	 0.0	 3	   0.000000	  14.000000	   0.000000;
	2	 0.0	 0.0	 3	   0.000000	  15.000000	   0.000000;
	2	 0.0	 0.0	 3	   0.000000	  30.000000	   0.000000;
	2	 0.0	 0.0	 3	   0.000000	  40.000000	   0.000000;
	2	 0.0	 0.0	 3	   0.000000	  10.000000	   0.000000;
];

%% branch data
%	fbus	tbus	r	x	b	rateA	rateB	rateC	ratio	angle	status	angmin	angmax
% mpc.branch = [
% 	1	 2	 0.00281	 0.0281	 0.00712	 400.0	 400.0	 400.0	 0.0	 0.0	 1	 -30.0	 30.0;
% 	1	 4	 0.00304	 0.0304	 0.00658	 426	 426	 426	 0.0	 0.0	 1	 -30.0	 30.0;
% 	1	 5	 0.00064	 0.0064	 0.03126	 426	 426	 426	 0.0	 0.0	 1	 -30.0	 30.0;
% 	2	 3	 0.00108	 0.0108	 0.01852	 426	 426	 426	 0.0	 0.0	 1	 -30.0	 30.0;
% 	3	 4	 0.00297	 0.0297	 0.00674	 426	 426	 426	 0.0	 0.0	 1	 -30.0	 30.0;
% 	4	 5	 0.00297	 0.0297	 0.00674	 240.0	 240.0	 240.0	 0.0	 0.0	 1	 -30.0	 30.0;
% ];


mpc.branch = [
1	2	0.00281	0.0281	0.00712	400	400	400	0	0	1	-1.049538583	7.19695527
1	4	0.00304	0.0304	0.00658	426	426	426	0	0	1	-0.561739952	5.206958596
1	5	0.00064	0.0064	0.03126	426	426	426	0	0	1	-1.745055374	0.882829191
2	3	0.00108	0.0108	0.01852	426	426	426	0	0	1	-2.771077426	1.81641371
3	4	0.00297	0.0297	0.00674	426	426	426	0	0	1	-6.015209486	3.722026583
4	5	0.00297	0.0297	0.00674	240	240	240	0	0	1	-4.562461465	0.932757796
];

%column_names% vdiff_min vdiff_max alpha_fr beta_fr alpha_to beta_to
mpc.branch_limit = [
-0.11287057	0.11287057	0.999899964	0.112960602	1.000100046	0.112971903
-0.070389042	0.09653341	0.999899984	0.130149909	1.000100026	0.130162928
-0.027309952	0.027309952	0.999899968	0.027399981	1.000100042	0.027402722
-0.046147461	0.046147461	0.999899992	0.046237468	1.000100018	0.046242092
-0.127062956	0.127062956	0.999899911	0.127153036	1.000100099	0.127165764
-0.071545433	0.071545433	0.999899911	0.071635513	1.000100099	0.071642684
    ];



















% INFO    : === Translation Options ===
% INFO    : Phase Angle Bound:           30.0 (deg.)
% INFO    : Line Capacity Model:         stat
% INFO    : AC OPF Solution File:        nesta_case5_pjm.m.opf.sol
% INFO    : Line Capacity PAB:           15.0 (deg.)
% INFO    : 
% INFO    : === Line Capacity Stat Model Notes ===
% INFO    : Updated Thermal Rating: on line 1-4 : Rate A, Rate B, Rate C , 9900.0, 0.0, 0.0 -> 426
% INFO    : Updated Thermal Rating: on line 1-5 : Rate A, Rate B, Rate C , 9900.0, 0.0, 0.0 -> 426
% INFO    : Updated Thermal Rating: on line 2-3 : Rate A, Rate B, Rate C , 9900.0, 0.0, 0.0 -> 426
% INFO    : Updated Thermal Rating: on line 3-4 : Rate A, Rate B, Rate C , 9900.0, 0.0, 0.0 -> 426
% INFO    : 
% INFO    : === Voltage Setpoint Replacement Notes ===
% INFO    : Bus 1	: V=1.0, theta=0.0 -> V=1.07762, theta=2.80378
% INFO    : Bus 2	: V=1.0, theta=0.0 -> V=1.08406, theta=-0.73464
% INFO    : Bus 3	: V=1.0, theta=0.0 -> V=1.1, theta=-0.55973
% INFO    : Bus 4	: V=1.0, theta=0.0 -> V=1.06414, theta=0.0
% INFO    : Bus 5	: V=1.0, theta=0.0 -> V=1.06907, theta=3.59035
% INFO    : 
% INFO    : === Generator Setpoint Replacement Notes ===
% INFO    : Gen at bus 1	: Pg=40.0, Qg=0.0 -> Pg=40.0, Qg=30.0
% INFO    : Gen at bus 1	: Vg=1.0 -> Vg=1.07762
% INFO    : Gen at bus 1	: Pg=170.0, Qg=0.0 -> Pg=170.0, Qg=127.5
% INFO    : Gen at bus 1	: Vg=1.0 -> Vg=1.07762
% INFO    : Gen at bus 3	: Pg=323.49, Qg=0.0 -> Pg=324.498, Qg=390.0
% INFO    : Gen at bus 3	: Vg=1.0 -> Vg=1.1
% INFO    : Gen at bus 4	: Pg=0.0, Qg=0.0 -> Pg=0.0, Qg=-10.802
% INFO    : Gen at bus 4	: Vg=1.0 -> Vg=1.06414
% INFO    : Gen at bus 5	: Pg=466.51, Qg=0.0 -> Pg=470.694, Qg=-165.039
% INFO    : Gen at bus 5	: Vg=1.0 -> Vg=1.06907
% INFO    : 
% INFO    : === Writing Matpower Case File Notes ===
